Circuit: * D:\Anu\CMOS\Variation in (mosfet) diff lambda in terms of gm.asc

WARNING: Node N001 is floating.

Instance "m1": Length shorter than recommended for a level 1 MOSFET.
Vg: Missing value, assumed 0V @ DC

SPICE directive ".backanno" has no meaning for netlists.
ron: 1/d(id(m1))=2398.8 at 2.2
id: id(m1)=0.000323437 at 2.2
gm: d(id(m1))=0.000416875 at 2.2


Date: Mon Mar 18 21:20:22 2024
Total elapsed time: 0.142 seconds.

tnom = 27
temp = 27
method = trap
totiter = 75
traniter = 0
tranpoints = 0
accept = 0
rejected = 0
matrix size = 5
fillins = 0
solver = Normal
Matrix Compiler1: 204 bytes object code size
Matrix Compiler2: 311 bytes object code size
